New England/MatPower Cases/Hard/Summer93Generous.m
% Case saved by PowerWorld Simulator, version 19, build date July 14, 2016
function mpc = Summer93
mpc.version = '2';
mpc.baseMVA =  100.00;

%% bus data 
mpc.bus = [
      1 2      0.00     0.00      0.00     0.00    1 1.0200000     1.05665  345.00   1   1.100   0.980    26.33     0.00 0  0
      2 1    121.95    40.93      0.00     0.00    1 1.0112055   -16.43643  345.00   1   1.060   0.920    26.32     0.40 0  0
      3 2      0.00     0.00      0.00     0.00    1 1.0200000    -3.77092  138.00   1   1.100   0.980    26.43     0.00 0  0
      4 1    100.25    31.13      0.00     0.00    1 0.9454922   -19.08628  138.00   1   1.060   0.920    30.29     0.05 0  0
      5 1    127.18    48.04      0.00     0.00    1 0.9689715   -13.54825  230.00   1   1.060   0.920    30.44     0.03 0  0
      6 1    118.82    38.96      0.00     0.00    1 0.9963613    -8.33418  138.00   1   1.060   0.920    30.79     0.03 0  0
      7 2    202.62    73.41      0.00     0.00    1 1.0200000    -9.77809  138.00   1   1.100   0.980    30.44     0.00 0  0
      8 2    152.72    47.93      0.00     0.00    1 1.0200000    -7.83104  230.00   1   1.100   0.980    30.42     0.00 0  0
      9 1      0.00     0.00      0.00     0.00    1 1.0222469    -9.88863  345.00   1   1.060   0.920    30.42     0.00 0  0
     10 3    117.23    40.79      0.00     0.00    1 1.0200000     0.00000  138.00   1   1.100   0.980    30.92     0.00 0  0
     11 1      0.00     0.00      0.00     0.00    1 1.0140448    -1.38088  138.00   1   1.060   0.920    30.92     0.01 0  0
     12 1      3.50     1.36      0.00     0.00    1 1.0128242    -2.35723  138.00   1   1.060   0.920    30.92     0.02 0  0
     13 1      0.00     0.00      0.00     0.00    1 1.0125303    -4.82333  345.00   1   1.060   0.920    30.93     0.04 0  0
     14 1    149.26    53.68      0.00     0.00    1 1.0033523   -13.42765  230.00   1   1.060   0.920    30.93     0.13 0  0
     15 1    175.27    54.95      0.00     0.00    1 0.9850543   -17.09040  230.00   1   1.060   0.920    30.84     0.12 0  0
     16 1    203.38    58.73      0.00     0.00    1 0.9898803   -24.47490  138.00   1   1.060   0.920    30.88     0.12 0  0
     17 1    118.21    33.43      0.00     0.00    1 0.9550065   -26.62091  138.00   1   1.060   0.920    30.22     0.16 0  0
     18 1    132.31    41.50      0.00     0.00    1 0.9396068   -20.58275  138.00   1   1.060   0.920    28.19     0.70 0  0
     19 1    136.70    36.38      0.00     0.00    1 0.9589639   -22.10960  138.00   1   1.060   0.920    31.74     0.19 0  0
     20 1    136.18    38.61      0.00     0.00    1 0.9738307   -13.63449   69.00   1   1.060   0.920    31.74     0.09 0  0
     21 1    183.87    51.75      0.00     0.00    1 0.9427398   -29.02945  138.00   1   1.060   0.920    31.95     0.43 0  0
     22 1    169.74    50.13      0.00     0.00    1 0.9768400   -15.85693  230.00   1   1.060   0.920    29.37    -0.09 0  0
     23 1    130.55    44.23      0.00     0.00    1 0.9859386   -15.04403  230.00   1   1.060   0.920    28.63     0.03 0  0
     24 2    160.32    57.91      0.00     0.00    1 1.0150042   -17.70260  230.00   1   1.100   0.980    30.88     0.13 0  0
     25 1     84.27    28.00      0.00     0.00    1 0.9890592   -17.31551  230.00   1   1.060   0.920    53.91    -1.88 0  0
     26 2    103.14    29.58      0.00     0.00    1 1.0200000   -25.93732  345.00   1   1.100   0.980    28.79     0.00 0  0
     27 1    131.23    43.77      0.00     0.00    1 0.9498011   -30.24818  230.00   1   1.060   0.920    30.04    -0.00 0  0
     28 2    161.98    53.10      0.00     0.00    1 1.0200000    -6.86528  138.00   1   1.100   0.980    30.15     0.00 0  0
     29 1    102.66    33.41      0.00     0.00    1 1.0029903     3.03297  138.00   1   1.060   0.920    30.09     0.00 0  0
     30 2      0.00     0.00      0.00     0.00    1 1.0200000   -14.41190   14.00   1   1.100   0.980    26.31     0.00 0  0
     31 2      0.00     0.00      0.00     0.00    1 1.0200000     0.32959   14.00   1   1.100   0.980    30.79     0.00 0  0
     32 2      0.00     0.00      0.00     0.00    1 1.0200000     5.76796   14.00   1   1.100   0.980    30.92     0.00 0  0
     33 2    168.64    44.18      0.00     0.00    1 1.0074348   -19.38744   14.00   1   1.100   0.980    31.71     0.17 0  0
     34 2    113.50    35.87      0.00     0.00    1 1.0200000    -5.09636   14.00   1   1.100   0.980    31.73     0.00 0  0
     35 2      0.00     0.00      0.00     0.00    1 1.0200000    -7.09892   14.00   1   1.100   0.980    29.38     0.00 0  0
     36 2      0.00     0.00      0.00     0.00    1 1.0200000    -8.09392   14.00   1   1.100   0.980    28.63     0.00 0  0
     37 2      0.00     0.00      0.00     0.00    1 1.0200000   -11.63746   14.00   1   1.100   0.980    53.97     0.00 0  0
     38 2      0.00     0.00      0.00     0.00    1 1.0200000     8.82487   14.00   1   1.100   0.980    30.10     0.00 0  0
     39 1     98.29    31.97      0.00     0.00    1 1.0080231   -23.83198  345.00   1   1.060   0.920    27.71     0.35 0  0
     40 1     98.62    29.76      0.00     0.00    1 1.0052641   -27.72668  345.00   1   1.060   0.920    28.57     0.07 0  0
     41 1    125.88    38.70      0.00     0.00    1 0.9639167   -29.39379  345.00   1   1.060   0.920    29.99    -0.02 0  0
     42 1    138.81    43.10      0.00     0.00    1 1.0088394   -24.51588  345.00   1   1.060   0.920    29.13    -0.02 0  0
     43 1    130.05    41.50      0.00     0.00    1 1.0131236   -26.47878  345.00   1   1.060   0.920    28.58     0.07 0  0
     44 1    110.81    39.75      0.00     0.00    1 1.0043829   -10.97751  230.00   1   1.060   0.920    30.40     0.02 0  0
     45 1    152.42    53.89      0.00     0.00    1 1.0101829    -9.04663  345.00   1   1.060   0.920    30.38     0.00 0  0
     46 1    136.69    43.56      0.00     0.00    1 0.9341395   -18.21333  138.00   1   1.060   0.920    30.44     0.03 0  0
     47 1    126.42    37.75      0.00     0.00    1 0.8748745   -25.51954  138.00   1   1.060   0.920    30.43     0.04 0  0
     48 1    148.11    43.83      0.00     0.00    1 0.9381933   -19.65666  345.00   1   1.060   0.920    30.23     0.03 0  0
     49 2    101.77    35.00      0.00     0.00    1 1.0200000   -10.08376  138.00   1   1.100   0.980    30.39     0.00 0  0
     50 1    141.20    43.03      0.00     0.00    1 0.9651413   -16.67089  138.00   1   1.060   0.920    30.36     0.00 0  0
     51 1    128.55    46.65      0.00     0.00    1 0.9497522   -20.89008  138.00   1   1.060   0.920    30.42     0.01 0  0
     52 2    157.74    53.58      0.00     0.00    1 1.0200000    -7.41062  345.00   1   1.100   0.980    30.38     0.00 0  0
     53 1    221.35    72.01      0.00     0.00    1 0.9409558   -20.31756  138.00   1   1.060   0.920    30.44     0.02 0  0
     54 2    115.49    42.02      0.00     0.00    1 1.0200000    -6.98185  230.00   1   1.100   0.980    30.42     0.00 0  0
     55 1    150.79    47.73      0.00     0.00    1 0.9973667   -12.70187  230.00   1   1.060   0.920    30.43     0.04 0  0
     56 2    156.72    49.93      0.00     0.00    1 1.0187295   -13.15104  345.00   1   1.100   0.980    30.84     0.08 0  0
     57 1     98.34    33.69      0.00     0.00    1 0.9048998   -24.05361  138.00   1   1.060   0.920    30.51     0.03 0  0
     58 1    190.87    61.86      0.00     0.00    1 0.9857602   -14.27963  345.00   1   1.060   0.920    30.92     0.12 0  0
     59 1    124.30    40.22      0.00     0.00    1 0.9996094   -17.12433  345.00   1   1.060   0.920    30.84     0.11 0  0
     60 1    137.14    46.04      0.00     0.00    1 0.9010878   -23.95492  138.00   1   1.060   0.920    30.57     0.01 0  0
     61 1    160.68    49.61      0.00     0.00    1 0.9887001   -19.87800  230.00   1   1.060   0.920    30.85     0.15 0  0
     62 1    147.42    54.22      0.00     0.00    1 0.9749769   -15.52361  345.00   1   1.060   0.920    30.92     0.12 0  0
     63 1    119.17    46.28      0.00     0.00    1 0.8954429   -24.18075  138.00   1   1.060   0.920    30.45     0.05 0  0
     64 1    239.66    74.73      0.00     0.00    1 0.9324196   -20.04910  138.00   1   1.060   0.920    30.73     0.02 0  0
     65 1    105.20    41.98      0.00     0.00    1 0.9837723   -14.47373  138.00   1   1.060   0.920    30.38     0.00 0  0
     66 1    120.97    46.07      0.00     0.00    1 0.9922505   -14.12321  345.00   1   1.060   0.920    30.95     0.15 0  0
     67 1    134.69    42.19      0.00     0.00    1 0.9385304   -20.63619  138.00   1   1.060   0.920    30.41     0.01 0  0
     68 1    160.74    57.36      0.00     0.00    1 0.9551851   -18.43054  138.00   1   1.060   0.920    30.41     0.01 0  0
     69 2     98.60    40.23      0.00     0.00    1 1.0200000    -4.78430  345.00   1   1.100   0.980    30.93     0.00 0  0
     70 1    128.38    45.20      0.00     0.00    1 0.9903212    -6.23924  138.00   1   1.060   0.920    30.86    -0.00 0  0
     71 1    106.90    40.75      0.00     0.00    1 1.0029460   -13.40228  345.00   1   1.060   0.920    30.98     0.18 0  0
     72 2     96.52    37.43      0.00     0.00    1 0.9534009   -20.80012  138.00   1   1.100   0.980    30.42     0.01 0  0
     73 1    109.85    37.57      0.00     0.00    1 0.9499615   -21.02202  138.00   1   1.060   0.920    30.43     0.01 0  0
     74 1    121.05    38.50      0.00     0.00    1 0.9669102   -15.53163  345.00   1   1.060   0.920    30.27     0.03 0  0
     75 1    125.79    40.89      0.00     0.00    1 0.9303040   -20.10830  138.00   1   1.060   0.920    30.32     0.04 0  0
     76 2    150.80    44.00      0.00     0.00    1 1.0200000   -12.05246  345.00   1   1.100   0.980    31.00     0.21 0  0
     77 1    104.21    30.54      0.00     0.00    1 0.9794653    -9.24730  138.00   1   1.060   0.920    30.03    -0.00 0  0
     78 2    126.78    38.94      0.00     0.00    1 1.0200000   -18.62711  345.00   1   1.100   0.980    29.58     0.00 0  0
     79 1    163.44    45.07      0.00     0.00    1 1.0285761   -22.10531  345.00   1   1.060   0.920    29.66    -0.01 0  0
     80 2    133.99    37.15      0.00     0.00    1 1.0200000    -9.04938  345.00   1   1.100   0.980    29.84     0.00 0  0
     81 1    143.32    34.85      0.00     0.00    1 1.0163550   -10.21658  345.00   1   1.060   0.920    29.86     0.00 0  0
     82 2    102.36    29.98      0.00     0.00    1 1.0200000    -7.38141  345.00   1   1.100   0.980    29.92     0.00 0  0
     83 1    107.69    31.38      0.00     0.00    1 1.0163958    -8.62800  345.00   1   1.060   0.920    29.96    -0.00 0  0
     84 2     84.63    27.62      0.00     0.00    1 1.0200000    -3.69763  138.00   1   1.100   0.980    30.01     0.00 0  0
     85 1     93.16    27.32      0.00     0.00    1 0.9537295   -15.42718  230.00   1   1.060   0.920    30.17     0.02 0  0
     86 1    137.93    34.43      0.00     0.00    1 0.9599843   -14.69718  138.00   1   1.060   0.920    30.18     0.01 0  0
     87 1    154.59    40.19      0.00     0.00    1 1.0334327   -19.22443  345.00   1   1.060   0.920    29.74    -0.02 0  0
     88 1    125.26    42.81      0.00     0.00    1 1.0069674    -8.93701  138.00   1   1.060   0.920    30.15     0.00 0  0
     89 1     99.98    32.67      0.00     0.00    1 0.9226904   -15.25228  138.00   1   1.060   0.920    29.99    -0.02 0  0
     90 1    113.87    38.29      0.00     0.00    1 0.9699276   -16.28234  230.00   1   1.060   0.920    28.59     0.02 0  0
     91 1    129.20    43.50      0.00     0.00    1 0.9433538   -19.06732  230.00   1   1.060   0.920    28.54    -0.00 0  0
     92 1    122.26    33.25      0.00     0.00    1 0.9531875   -21.43494  345.00   1   1.060   0.920    31.96     0.36 0  0
     93 1    138.20    43.42      0.00     0.00    1 0.9573530   -21.66548  345.00   1   1.060   0.920    31.84     0.31 0  0
     94 1    163.12    52.76      0.00     0.00    1 0.9726306   -24.61345  138.00   1   1.060   0.920    31.63     0.09 0  0
     95 1    152.61    46.81      0.00     0.00    1 0.9452959   -25.90816  138.00   1   1.060   0.920    31.65     0.20 0  0
     96 1    167.81    51.59      0.00     0.00    1 0.9434466   -25.60970  138.00   1   1.060   0.920    31.59     0.26 0  0
     97 1    165.20    36.18      0.00     0.00    1 0.9689178   -22.15018  345.00   1   1.060   0.920    31.44     0.26 0  0
     98 1    175.18    47.15      0.00     0.00    1 0.9941923   -21.93738  345.00   1   1.060   0.920    31.26     0.31 0  0
     99 1    165.97    47.49      0.00     0.00    1 0.9574252   -23.56864  345.00   1   1.060   0.920    31.70     0.23 0  0
    100 1    138.11    43.14      0.00     0.00    1 0.9505566   -15.87292  138.00   1   1.060   0.920    31.30     0.01 0  0
    101 1    130.12    40.12      0.00     0.00    1 0.9526215   -22.28917  345.00   1   1.060   0.920    31.85     0.32 0  0
    102 1     94.37    38.53      0.00     0.00    1 0.9491198   -26.41733  138.00   1   1.060   0.920    31.67     0.15 0  0
    103 2    194.48    57.89      0.00     0.00    1 1.0200000   -19.68477  138.00   1   1.100   0.980    31.63     0.00 0  0
    104 1    143.64    42.01      0.00     0.00    1 0.9274421   -27.32430  138.00   1   1.060   0.920    31.78     0.22 0  0
    105 1    113.36    34.65      0.00     0.00    1 0.9443397   -24.72123  138.00   1   1.060   0.920    31.76     0.20 0  0
    106 1    115.53    35.68      0.00     0.00    1 0.9333909   -27.47683  138.00   1   1.060   0.920    31.83     0.23 0  0
    107 1    128.84    42.14      0.00     0.00    1 0.9347553   -26.90627  138.00   1   1.060   0.920    31.76     0.24 0  0
    108 1    193.41    56.28      0.00     0.00    1 0.9287927   -27.42249  230.00   1   1.060   0.920    31.81     0.29 0  0
    109 1    157.80    49.13      0.00     0.00    1 0.9439386   -27.78205  138.00   1   1.060   0.920    31.94     0.15 0  0
    110 1     94.15    36.82      0.00     0.00    1 0.9444745   -23.40400  138.00   1   1.060   0.920    31.76     0.19 0  0
    111 1    149.57    49.98      0.00     0.00    1 0.9540736   -23.73183  345.00   1   1.060   0.920    31.71     0.23 0  0
    112 1    191.75    53.76      0.00     0.00    1 0.9005657   -31.82923  138.00   1   1.060   0.920    31.93     0.43 0  0
    113 1     93.56    32.84      0.00     0.00    1 0.8812723   -33.73487  138.00   1   1.060   0.920    31.97     0.44 0  0
    114 1     96.55    34.75      0.00     0.00    1 0.9419916   -26.45311  138.00   1   1.060   0.920    31.72     0.18 0  0
    115 1    105.84    35.10      0.00     0.00    1 0.9584801   -20.64747  345.00   1   1.060   0.920    31.95     0.35 0  0
    116 1    172.33    47.41      0.00     0.00    1 0.9826633   -22.89840  230.00   1   1.060   0.920    33.48    -0.24 0  0
    117 1    138.82    46.01      0.00     0.00    1 0.9616520   -24.02389  138.00   1   1.060   0.920    31.08     0.21 0  0
    118 1     95.14    31.56      0.00     0.00    1 0.9405999   -25.42782  138.00   1   1.060   0.920    31.79     0.23 0  0
    119 1    166.04    45.43      0.00     0.00    1 0.9360348   -26.58126  138.00   1   1.060   0.920    31.80     0.24 0  0
    120 2    113.24    40.16      0.00     0.00    1 0.9980570   -22.49888  230.00   1   1.100   0.980    32.34     0.12 0  0
    121 1    131.21    44.19      0.00     0.00    1 0.9899646   -23.24941  230.00   1   1.060   0.920    32.35     0.13 0  0
    122 1    112.47    38.99      0.00     0.00    1 0.9380130   -27.29430  138.00   1   1.060   0.920    31.42     0.26 0  0
    123 1    153.54    41.59      0.00     0.00    1 0.9870970   -21.88864  230.00   1   1.060   0.920    27.73    -0.16 0  0
    124 1    156.77    41.79      0.00     0.00    1 0.9211584   -28.92182  230.00   1   1.060   0.920    32.96     0.45 0  0
    125 1    162.03    51.15      0.00     0.00    1 0.9252836   -29.94972  138.00   1   1.060   0.920    31.86     0.53 0  0
    126 1    138.99    37.83      0.00     0.00    1 0.9476926   -27.33375  230.00   1   1.060   0.920    32.14     0.26 0  0
    127 1    157.84    44.35      0.00     0.00    1 0.9384752   -27.72424  230.00   1   1.060   0.920    32.15     0.36 0  0
    128 2    169.35    47.47      0.00     0.00    1 1.0200000   -24.12659  138.00   1   1.100   0.980    31.07     0.00 0  0
    129 1    135.90    41.13      0.00     0.00    1 0.9180524   -31.19441  138.00   1   1.060   0.920    31.95     0.48 0  0
    130 2    142.73    44.51      0.00     0.00    1 1.0113783   -25.96470  138.00   1   1.100   0.980    31.57     0.22 0  0
    131 1    181.69    53.67      0.00     0.00    1 0.9047828   -31.76704  138.00   1   1.060   0.920    31.93     0.48 0  0
    132 1    172.08    42.12      0.00     0.00    1 0.9448565   -25.33867  230.00   1   1.060   0.920    33.65     0.76 0  0
    133 1    119.48    40.20      0.00     0.00    1 0.9548020   -23.51751  230.00   1   1.060   0.920    41.77    -1.74 0  0
    134 1    137.94    41.09      0.00     0.00    1 0.9354760   -26.55030  230.00   1   1.060   0.920    33.17     0.68 0  0
    135 1    110.38    37.49      0.00     0.00    1 0.9738893   -25.01997  345.00   1   1.060   0.920    31.50     0.46 0  0
    136 1    129.75    42.41      0.00     0.00    1 0.9332252   -26.66751  138.00   1   1.060   0.920    31.77     0.21 0  0
    137 1    109.58    35.64      0.00     0.00    1 0.9883516   -24.08506  345.00   1   1.060   0.920    31.40     0.40 0  0
    138 1    165.46    47.13      0.00     0.00    1 0.9532693   -23.79865  345.00   1   1.060   0.920    31.72     0.24 0  0
    139 1    148.67    45.63      0.00     0.00    1 0.9974250   -18.32650  345.00   1   1.060   0.920    26.31     0.40 0  0
    140 1    182.67    50.13      0.00     0.00    1 0.9698196   -13.44597  138.00   1   1.060   0.920    31.30     0.01 0  0
    141 2    168.96    51.08      0.00     0.00    1 1.0200000    -7.99374  345.00   1   1.100   0.980    31.37     0.00 0  0
    142 1    121.75    44.45      0.00     0.00    1 0.9255460   -28.27928  230.00   1   1.060   0.920    33.23     0.52 0  0
    143 2    162.20    47.47      0.00     0.00    1 0.9968111   -21.05872  230.00   1   1.100   0.980    30.85     0.15 0  0
    144 1    186.32    57.07      0.00     0.00    1 0.9820343   -22.99695  230.00   1   1.060   0.920    30.86     0.15 0  0
    145 1    151.36    52.36      0.00     0.00    1 0.9660245   -28.15706  138.00   1   1.060   0.920    30.73     0.00 0  0
    146 2    163.08    51.57      0.00     0.00    1 0.9976829   -23.10240  345.00   1   1.100   0.980    31.36     0.37 0  0
    147 1    115.12    36.35      0.00     0.00    1 0.9253492   -27.81204  138.00   1   1.060   0.920    31.84     0.29 0  0
    148 1    125.93    39.43      0.00     0.00    1 0.9583738   -21.28852  345.00   1   1.060   0.920    31.87     0.32 0  0
    149 2    194.07    51.16      0.00     0.00    1 1.0176232   -26.10194  138.00   1   1.100   0.980    30.81     0.00 0  0
    150 1    146.28    45.83      0.00     0.00    1 0.9221368   -21.93891  345.00   1   1.060   0.920    30.23     0.03 0  0
    151 1    128.38    43.89      0.00     0.00    1 0.9912003   -23.73510  345.00   1   1.060   0.920    31.40     0.40 0  0
    152 1    108.00    32.19      0.00     0.00    1 0.8948349   -32.15544  138.00   1   1.060   0.920    31.93     0.42 0  0
    153 1    123.52    43.24      0.00     0.00    1 0.9672354   -25.42848  345.00   1   1.060   0.920    31.55     0.48 0  0
    154 1    146.39    47.99      0.00     0.00    1 0.9390158   -24.70378  230.00   1   1.060   0.920    30.32     0.01 0  0
    155 1    133.47    46.72      0.00     0.00    1 0.9211471   -25.95421  138.00   1   1.060   0.920    30.34     0.01 0  0
    156 1    137.95    46.94      0.00     0.00    1 0.9880261   -16.76466  345.00   1   1.060   0.920    30.32     0.02 0  0
    157 2    135.48    42.49      0.00     0.00    1 1.0200000   -17.69153  138.00   1   1.100   0.980    30.54     0.00 0  0
    158 1    135.47    37.78      0.00     0.00    1 0.9715742   -23.94704  138.00   1   1.060   0.920    30.58    -0.00 0  0
    159 1    136.92    34.56      0.00     0.00    1 0.9782540   -26.25358  345.00   1   1.060   0.920    30.22    -0.02 0  0
    160 1    169.10    61.62      0.00     0.00    1 0.9141215   -30.44526  230.00   1   1.060   0.920    30.15    -0.03 0  0
    161 1     97.69    34.56      0.00     0.00    1 0.9637237   -23.44220  138.00   1   1.060   0.920    30.52    -0.02 0  0
    162 2    131.26    44.27      0.00     0.00    1 1.0200000   -16.63929  345.00   1   1.100   0.980    30.45     0.00 0  0
    163 1    156.83    52.67      0.00     0.00    1 0.9831103   -22.50337  230.00   1   1.060   0.920    30.88     0.17 0  0
    164 1    129.54    49.63      0.00     0.00    1 0.9515798   -24.37929  138.00   1   1.060   0.920    30.84     0.16 0  0
    165 2    134.68    35.97      0.00     0.00    1 1.0200000   -14.49518  230.00   1   1.100   0.980    30.11     0.00 0  0
    166 2    124.99    39.19      0.00     0.00    1 1.0200000   -17.74971  138.00   1   1.100   0.980    30.59     0.00 0  0
    167 1    124.32    35.53      0.00     0.00    1 1.0118330   -19.24080  345.00   1   1.060   0.920    29.51    -0.03 0  0
    168 1     88.76    33.65      0.00     0.00    1 0.9571882   -19.41413  230.00   1   1.060   0.920    54.57    -1.63 0  0
    169 1    128.31    39.22      0.00     0.00    1 0.9652515   -19.63016  138.00   1   1.060   0.920    30.34     0.01 0  0
    170 1    147.68    47.40      0.00     0.00    1 0.9017545   -18.60871  138.00   1   1.060   0.920    31.16     0.05 0  0
    171 1    131.64    49.94      0.00     0.00    1 0.9137769   -18.21698  138.00   1   1.060   0.920    31.23     0.03 0  0
    172 1    148.22    45.42      0.00     0.00    1 0.9458602   -12.43995  138.00   1   1.060   0.920    31.00     0.04 0  0
    173 1    134.96    48.61      0.00     0.00    1 0.9390072   -11.99232  138.00   1   1.060   0.920    30.98     0.04 0  0
    174 1    157.83    54.16      0.00     0.00    1 0.9954181   -16.27628  345.00   1   1.060   0.920    31.04     0.18 0  0
    175 2    126.96    38.59      0.00     0.00    1 1.0200000   -14.60324  138.00   1   1.100   0.980    31.13     0.00 0  0
    176 2    155.55    49.15      0.00     0.00    1 1.0155553   -22.81620  345.00   1   1.100   0.980    31.35     0.36 0  0
    177 1    213.81    72.91      0.00     0.00    1 0.9967121   -18.82898  230.00   1   1.060   0.920    30.97     0.16 0  0
    178 1    117.74    39.68      0.00     0.00    1 0.9628620   -23.17637  138.00   1   1.060   0.920    31.14     0.21 0  0
    179 1     10.77     3.30      0.00     0.00    1 0.9614294   -23.27831  138.00   1   1.060   0.920    31.14     0.21 0  0
    180 1     15.52     4.99      0.00     0.00    1 0.9951574   -16.35461  345.00   1   1.060   0.920    31.04     0.18 0  0
    181 1      0.00     0.00      0.00     0.00    1 1.0202649    -9.52561  345.00   1   1.060   0.920    28.08     0.09 0  0
    182 1      0.00     0.00      0.00     0.00    1 0.9689235   -15.38867  345.00   1   1.060   0.920    30.25     0.03 0  0
    183 1      0.00     0.00      0.00     0.00    1 0.9908144   -11.62438  345.00   1   1.060   0.920    30.34     0.01 0  0
    184 1      0.00     0.00      0.00     0.00    1 0.9940253   -10.89526  230.00   1   1.060   0.920    30.78     0.04 0  0
    185 1      0.00     0.00      0.00     0.00    1 0.9993661   -11.64996  345.00   1   1.060   0.920    30.85     0.07 0  0
    186 1      0.00     0.00      0.00     0.00    1 0.9897801   -12.87888  345.00   1   1.060   0.920    30.41     0.01 0  0
    187 1      0.00     0.00      0.00     0.00    1 1.0121397    -9.80613  345.00   1   1.060   0.920    30.42     0.00 0  0
    188 1      0.00     0.00      0.00     0.00    1 1.0136924    -4.18519  345.00   1   1.060   0.920    30.93     0.03 0  0
    189 1      0.00     0.00      0.00     0.00    1 1.0133114    -4.87552  345.00   1   1.060   0.920    30.93     0.03 0  0
    190 1      0.00     0.00      0.00     0.00    1 1.0067439   -11.10405  345.00   1   1.060   0.920    30.93     0.13 0  0
    191 1      0.00     0.00      0.00     0.00    1 1.0066243   -16.11658  345.00   1   1.060   0.920    30.83     0.10 0  0
    192 1      0.00     0.00      0.00     0.00    1 0.9858549   -22.08810  230.00   1   1.060   0.920    30.97     0.23 0  0
    193 1      0.00     0.00      0.00     0.00    1 0.9953409   -20.51175  345.00   1   1.060   0.920    30.80     0.11 0  0
    194 1      0.00     0.00      0.00     0.00    1 0.9897883   -22.18779  345.00   1   1.060   0.920    30.63     0.08 0  0
    195 1      0.00     0.00      0.00     0.00    1 0.9421814   -25.52093  230.00   1   1.060   0.920    31.78     0.28 0  0
    196 1      0.00     0.00      0.00     0.00    1 0.9534861   -23.39891  345.00   1   1.060   0.920    31.73     0.24 0  0
    197 1      0.00     0.00      0.00     0.00    1 0.9439008   -26.47693  230.00   1   1.060   0.920    32.20     0.56 0  0
    198 1      0.00     0.00      0.00     0.00    1 0.9520013   -24.54037  345.00   1   1.060   0.920    31.94     0.37 0  0
    199 1      0.00     0.00      0.00     0.00    1 0.9657894   -19.62767  345.00   1   1.060   0.920    31.93     0.35 0  0
    200 1      0.00     0.00      0.00     0.00    1 0.9953901   -18.93177  345.00   1   1.060   0.920    31.12     0.20 0  0
...
];

%% generator data 
mpc.gen = [
      1    258.72    -69.11    103.00   -103.00  1.0200    100.00 1    338.00      3.00     81.31   9999.90   -500.00   1500.00   -500.00   1500.00 0 0 0 0   0.0000 0 0 0 0
      3    525.10     77.61    392.00   -209.00  1.0200    100.00 1    686.00    298.00      0.00      0.00      0.00      0.00      0.00      0.00 0 0 0 0   0.0000 0 0 0 0
      7    515.91    274.30    385.00   -205.00  1.0200    100.00 1    674.00    139.00      0.00      0.00      0.00      0.00      0.00      0.00 0 0 0 0   0.0000 0 0 0 0
      8    467.69    269.19    349.00   -186.00  1.0200    100.00 1    611.00    189.00      0.00      0.00      0.00      0.00      0.00      0.00 0 0 0 0   0.0000 0 0 0 0
     10   2070.96    374.57   1298.00   -692.00  1.0200    100.00 1   2271.00   1406.00      0.00      0.00      0.00      0.00      0.00      0.00 0 0 0 0   0.0000 0 0 0 0
     24    414.11    309.00    309.00   -165.00  1.0200    100.00 1    541.00    288.00      0.00      0.00      0.00      0.00      0.00      0.00 0 0 0 0   0.0000 0 0 0 0
     26    229.63    118.08    171.00    -91.00  1.0200    100.00 1    300.00    120.00      0.00      0.00      0.00      0.00      0.00      0.00 0 0 0 0   0.0000 0 0 0 0
     28    453.15    154.29    338.00   -180.00  1.0200    100.00 1    592.00    216.00      0.00      0.00      0.00      0.00      0.00      0.00 0 0 0 0   0.0000 0 0 0 0
     30    201.31     53.12    150.00    -80.00  1.0200    100.00 1    263.00    125.00      0.00      0.00      0.00      0.00      0.00      0.00 0 0 0 0   0.0000 0 0 0 0
     31    612.36    142.83    457.00   -244.00  1.0200    100.00 1    800.00    241.00      0.00      0.00      0.00      0.00      0.00      0.00 0 0 0 0   0.0000 0 0 0 0
     32    522.80     26.33    390.00   -208.00  1.0200    100.00 1    683.00    163.00      0.00      0.00      0.00      0.00      0.00      0.00 0 0 0 0   0.0000 0 0 0 0
     33    508.26    379.00    379.00   -202.00  1.0200    100.00 1    664.00    379.00      0.00      0.00      0.00      0.00      0.00      0.00 0 0 0 0   0.0000 0 0 0 0
     34    946.86    316.99    707.00   -377.00  1.0200    100.00 1   1237.00    295.00      0.00      0.00      0.00      0.00      0.00      0.00 0 0 0 0   0.0000 0 0 0 0
     35   1060.91    389.09    792.00   -422.00  1.0200    100.00 1   1386.00    924.00      0.00      0.00      0.00      0.00      0.00      0.00 0 0 0 0   0.0000 0 0 0 0
     36    450.08    146.62    336.00   -179.00  1.0200    100.00 1    588.00    140.00      0.00      0.00      0.00      0.00      0.00      0.00 0 0 0 0   0.0000 0 0 0 0
     37    434.01    146.14    324.00   -173.00  1.0200    100.00 1    567.00    100.00      0.00      0.00      0.00      0.00      0.00      0.00 0 0 0 0   0.0000 0 0 0 0
     38    667.47    110.47    498.00   -266.00  1.0200    100.00 1    872.00    208.00      0.00      0.00      0.00      0.00      0.00      0.00 0 0 0 0   0.0000 0 0 0 0
     49    464.63    211.55    347.00   -185.00  1.0200    100.00 1    607.00    320.00      0.00      0.00      0.00      0.00      0.00      0.00 0 0 0 0   0.0000 0 0 0 0
     52   1256.87    328.80    938.00   -500.00  1.0200    100.00 1   1642.00    162.00      0.00      0.00      0.00      0.00      0.00      0.00 0 0 0 0   0.0000 0 0 0 0
     54    417.93     24.21    312.00   -166.00  1.0200    100.00 1    546.00    208.00      0.00      0.00      0.00      0.00      0.00      0.00 0 0 0 0   0.0000 0 0 0 0
     56    557.25    416.00    416.00   -222.00  1.0200    100.00 1    728.00    416.00      0.00      0.00      0.00      0.00      0.00      0.00 0 0 0 0   0.0000 0 0 0 0
     69    398.03    253.80    297.00   -158.00  1.0200    100.00 1    520.00    149.00      0.00      0.00      0.00      0.00      0.00      0.00 0 0 0 0   0.0000 0 0 0 0
     72    201.31    150.00    150.00    -80.00  1.0200    100.00 1    263.00     85.00      0.00      0.00      0.00      0.00      0.00      0.00 0 0 0 0   0.0000 0 0 0 0
     76    675.13    452.97    504.00   -269.00  1.0200    100.00 1    882.00    435.00      0.00      0.00      0.00      0.00      0.00      0.00 0 0 0 0   0.0000 0 0 0 0
     78    220.45    -23.33    165.00    -88.00  1.0200    100.00 1    288.00    130.00      0.00      0.00      0.00      0.00      0.00      0.00 0 0 0 0   0.0000 0 0 0 0
     80    442.43    -49.17    330.00   -176.00  1.0200    100.00 1    578.00    113.00      0.00      0.00      0.00      0.00      0.00      0.00 0 0 0 0   0.0000 0 0 0 0
     82    239.59    -22.10    179.00    -95.00  1.0200    100.00 1    313.00    176.00      0.00      0.00      0.00      0.00      0.00      0.00 0 0 0 0   0.0000 0 0 0 0
     84    679.72    153.60    508.00   -271.00  1.0200    100.00 1    888.00    169.00      0.00      0.00      0.00      0.00      0.00      0.00 0 0 0 0   0.0000 0 0 0 0
    103    701.15    393.98    523.00   -279.00  1.0200    100.00 1    916.00    208.00      0.00      0.00      0.00      0.00      0.00      0.00 0 0 0 0   0.0000 0 0 0 0
    120    646.80    483.00    483.00   -258.00  1.0200    100.00 1    845.00    161.00      0.00      0.00      0.00      0.00      0.00      0.00 0 0 0 0   0.0000 0 0 0 0
    128    289.34     83.72    216.00   -115.00  1.0200    100.00 1    378.00    180.00      0.00      0.00      0.00      0.00      0.00      0.00 0 0 0 0   0.0000 0 0 0 0
    130    204.37    153.00    153.00    -81.00  1.0200    100.00 1    267.00    115.00      0.00      0.00      0.00      0.00      0.00      0.00 0 0 0 0   0.0000 0 0 0 0
    141   1294.37    525.58    967.00   -515.00  1.0200    100.00 1   1691.00    877.00      0.00      0.00      0.00      0.00      0.00      0.00 0 0 0 0   0.0000 0 0 0 0
    143    231.93    173.00    173.00    -92.00  1.0200    100.00 1    303.00    155.00      0.00      0.00      0.00      0.00      0.00      0.00 0 0 0 0   0.0000 0 0 0 0
    146    464.63    347.00    347.00   -185.00  1.0200    100.00 1    607.00    300.00      0.00      0.00      0.00      0.00      0.00      0.00 0 0 0 0   0.0000 0 0 0 0
    149    209.73    157.00    157.00    -83.00  1.0200    100.00 1    274.00    186.00      0.00      0.00      0.00      0.00      0.00      0.00 0 0 0 0   0.0000 0 0 0 0
    157    398.80    177.55    298.00   -159.00  1.0200    100.00 1    521.00    288.00      0.00      0.00      0.00      0.00      0.00      0.00 0 0 0 0   0.0000 0 0 0 0
    162    486.83    274.70    363.00   -194.00  1.0200    100.00 1    636.00    230.00      0.00      0.00      0.00      0.00      0.00      0.00 0 0 0 0   0.0000 0 0 0 0
    165    998.14    227.26    745.00   -397.00  1.0200    100.00 1   1304.00    782.00      0.00      0.00      0.00      0.00      0.00      0.00 0 0 0 0   0.0000 0 0 0 0
    166    635.32    244.03    474.00   -253.00  1.0200    100.00 1    830.00    277.00      0.00      0.00      0.00      0.00      0.00      0.00 0 0 0 0   0.0000 0 0 0 0
    175    479.17    145.91    358.00   -191.00  1.0200    100.00 1    626.00    209.00      0.00      0.00      0.00      0.00      0.00      0.00 0 0 0 0   0.0000 0 0 0 0
    176    204.37    153.00    153.00    -81.00  1.0200    100.00 1    267.00     86.00      0.00      0.00      0.00      0.00      0.00      0.00 0 0 0 0   0.0000 0 0 0 0
];

%% generator cost data
mpc.gencost = [
2 0 0 4   0.0000    0.001   17.500   450.00
2 0 0 4   0.0000    0.001   24.757  1505.67
2 0 0 4   0.0000    0.002   24.400  3342.77
2 0 0 4   0.0000    0.005   30.562  1114.42
2 0 0 4   0.0000    0.001   25.697  6313.07
2 0 0 4   0.0000    0.002   27.100  1297.89
2 0 0 4   0.0000    0.005   27.249   783.88
2 0 0 4   0.0000    0.002   26.174  1372.76
2 0 0 4   0.0000    0.006   26.053   655.13
2 0 0 4   0.0000    0.002   29.298  3418.85
2 0 0 4   0.0000    0.002   29.135  1458.22
2 0 0 4   0.0000    0.001   23.899  4734.80
2 0 0 4   0.0000    0.004   29.960  3677.05
2 0 0 4   0.0000    0.001   26.605  6691.85
2 0 0 4   0.0000    0.002   26.400  3342.77
2 0 0 4   0.0000    0.004   52.785  7415.02
2 0 0 4   0.0000    0.003   27.114  3844.19
2 0 0 4   0.0000    0.002   25.878  1390.96
2 0 0 4   0.0000    0.003   21.871  2841.36
2 0 0 4   0.0000    0.002   26.558  1284.25
2 0 0 4   0.0000    0.001   24.540  1581.44
2 0 0 4   0.0000    0.002   25.780  3523.95
2 0 0 4   0.0000    0.003   22.330  2325.41
2 0 0 4   0.0000    0.001   25.323  1978.07
2 0 0 4   0.0000    0.005   26.473   732.25
2 0 0 4   0.0000    0.002   26.356  1347.98
2 0 0 4   0.0000    0.008   27.364   550.89
2 0 0 4   0.0000    0.004   31.864  3610.20
2 0 0 4   0.0000    0.001   25.117  2036.75
2 0 0 4   0.0000    0.004   32.314  3777.33
2 0 0 4   0.0000    0.004   26.167   947.57
2 0 0 4   0.0000    0.006   27.791   710.04
2 0 0 4   0.0000    0.003   27.697  4313.07
2 0 0 4   0.0000    0.005   26.616   773.70
2 0 0 4   0.0000    0.002   26.010  1398.04
2 0 0 4   0.0000    0.006   27.475   721.30
2 0 0 4   0.0000    0.006   32.756  1215.71
2 0 0 4   0.0000    0.002   25.916  1460.47
2 0 0 4   0.0000    0.001   26.918  6534.03
2 0 0 4   0.0000    0.001   25.325  1860.51
2 0 0 4   0.0000    0.002   25.962  1438.95
2 0 0 4   0.0000    0.006   27.924   713.43
];

%% branch data
mpc.branch = [
      1       2  0.005978  0.120624   1.98515    414.51    414.51    414.51 1.00000    0.000 1    0.00    0.00    258.72    -69.11   -254.81    -56.69 0 0 0 0
      2      30  0.000000  0.018100   0.00000   1000.00   1000.00   1000.00 1.00000    0.000 1    0.00    0.00   -201.31    -45.57    201.31     53.12 0 0 0 0
      2      39  0.008680  0.060198   0.52937    530.03    530.03    530.03 1.00000    0.000 1    0.00    0.00    216.26    -38.82   -212.28     12.47 0 0 0 0
      2     139  0.003390  0.023178   0.20974    530.03    530.03    530.03 1.00000    0.000 1    0.00    0.00    149.47     29.91   -148.67    -45.63 0 0 0 0
      2     181  0.007607  0.052755   0.46393    530.03    530.03    530.03 1.00000    0.000 1    0.00    0.00   -230.96      6.43    235.00    -26.30 0 0 0 0
      2     201  0.002742  0.018748   0.16965    530.03    530.03    530.03 1.00000    0.000 1    0.00    0.00    199.41     63.82   -198.20    -72.60 0 0 0 0
      3      18  0.003829  0.158129   0.09685    316.20    316.20    316.20 1.00000    0.000 1    0.00    0.00    177.08     68.44   -175.72    -21.89 0 0 0 0
      3     181  0.000638  0.030000   0.00000    400.00    400.00    400.00 1.00000    0.000 1    0.00    0.00    348.02      9.18   -347.28     25.77 0 0 0 0
      4      75  0.016845  0.038117   0.00951    107.32    107.32    107.32 1.00000    0.000 1    0.00    0.00     48.50     16.18    -48.01    -15.90 0 0 0 0
      4     182  0.000889  0.040000   0.00000    300.00    300.00    300.00 1.00000    0.000 1    0.00    0.00   -148.75    -47.31    148.99     58.21 0 0 0 0
      5       8  0.002959  0.039331   0.08406    578.83    578.83    578.83 1.00000    0.000 1    0.00    0.00   -257.40    -97.80    259.76    120.92 0 0 0 0
      5     183  0.001261  0.046667   0.00000    150.00    150.00    150.00 1.00000    0.000 1    0.00    0.00    -70.21    -42.30     70.30     45.64 0 0 0 0
      5     184  0.045023  0.111012   0.17939    178.87    178.87    178.87 1.00000    0.000 1    0.00    0.00    -41.78    -12.42     42.62     -2.79 0 0 0 0
      5     207  0.001124  0.013276   0.03027    541.39    541.39    541.39 1.00000    0.000 1    0.00    0.00    242.21    104.47   -241.37    -97.38 0 0 0 0
      6       7  0.062002  0.145750   0.03365    107.32    107.32    107.32 1.00000    0.000 1    0.00    0.00      9.14    -21.50     -8.84     18.77 0 0 0 0
      6      31  0.000000  0.025000   0.00000   1100.00   1100.00   1100.00 1.00000    0.000 1    0.00    0.00   -612.36    -47.82    612.36    142.83 0 0 0 0
      6      70  0.033638  0.077688   0.01859    107.32    107.32    107.32 1.00000    0.000 1    0.00    0.00    -35.96     23.24     36.60    -23.61 0 0 0 0
      6     184  0.000297  0.014545   0.00000    550.00    550.00    550.00 1.00000    0.000 1    0.00    0.00    304.60     16.59   -304.32     -2.95 0 0 0 0
      6     185  0.000556  0.026667   0.00000    450.00    450.00    450.00 1.00000    0.000 1    0.00    0.00    215.77     -9.47   -215.51     22.00 0 0 0 0
      7     186  0.000336  0.017143   0.00000    700.00    700.00    700.00 1.00000    0.000 1    0.00    0.00    322.13    182.11   -321.69   -159.55 0 0 0 0
      8      54  0.000326  0.005080   0.01216    665.28    665.28    665.28 1.00000    0.000 1    0.00    0.00   -302.15     21.03    302.44    -17.82 0 0 0 0
      8     187  0.000196  0.010000   0.00000    700.00    700.00    700.00 1.00000    0.000 1    0.00    0.00    357.36     79.30   -357.11    -66.42 0 0 0 0
    187       9  0.006838  0.047422   0.41703    530.03    530.03    530.03 1.00000    0.000 1    0.00    0.00      0.03    -42.94      0.00      0.00 0 0 0 0
     10      11  0.000315  0.008557   0.00495    566.01    566.01    566.01 1.00000    0.000 1    0.00    0.00    293.64     63.41   -293.37    -56.50 0 0 0 0
     10      32  0.000000  0.020000   0.00000   1000.00   1000.00   1000.00 1.00000    0.000 1    0.00    0.00   -522.80     26.34    522.80     26.33 0 0 0 0
     10      70  0.005799  0.067267   0.02063    324.83    324.83    324.83 1.00000    0.000 1    0.00    0.00    166.61     38.46   -164.98    -21.59 0 0 0 0
     10     188  0.000073  0.003750   0.00000   3200.00   3200.00   3200.00 1.00000    0.000 1    0.00    0.00   2016.28    205.57  -2013.38    -57.52 0 0 0 0
     12      11  0.001279  0.043500   0.00000    100.00    100.00    100.00 1.00000    0.000 1    0.00    0.00    -40.27     -1.31     40.29      2.00 0 0 0 0
     11     173  0.016673  0.124076   0.03486    237.35    237.35    237.35 1.00000    0.000 1    0.00    0.00    148.64     52.68   -144.58    -25.77 0 0 0 0
     11     189  0.001500  0.060000   0.00000    200.00    200.00    200.00 1.00000    0.000 1    0.00    0.00    104.44      1.81   -104.28      4.55 0 0 0 0
     12      13  0.003529  0.120000   0.00000    100.00    100.00    100.00 1.00000    0.000 1    0.00    0.00     36.77     -0.04    -36.72      1.62 0 0 0 0
    188      13  0.000109  0.001949   0.02003   1045.73   1045.73   1045.73 1.00000    0.000 1    0.00    0.00    588.14     29.80   -587.77    -25.28 0 0 0 0
     13     190  0.000846  0.017908   0.26779   1060.07   1060.07   1060.07 1.00000    0.000 1    0.00    0.00    624.50     23.65   -621.27     17.42 0 0 0 0
     14      15  0.036111  0.089040   0.14388    178.87    178.87    178.87 1.00000    0.000 1    0.00    0.00     68.87    -12.29    -67.16      2.28 0 0 0 0
     14     177  0.018818  0.067761   0.11459    229.46    229.46    229.46 1.00000    0.000 1    0.00    0.00    133.20    -26.37   -129.81     27.14 0 0 0 0
     14     190  0.000233  0.011667   0.00000    600.00    600.00    600.00 1.00000    0.000 1    0.00    0.00   -351.33    -15.02    351.62     29.35 0 0 0 0
     15      61  0.004135  0.027504   0.05200    353.36    353.36    353.36 1.00000    0.000 1    0.00    0.00    167.10    -36.51   -165.86     39.69 0 0 0 0
    184      15  0.003431  0.042042   0.08894    541.39    541.39    541.39 1.00000    0.000 1    0.00    0.00    252.50      9.81   -250.28      8.69 0 0 0 0
     15     191  0.002059  0.070000   0.00000    100.00    100.00    100.00 1.00000    0.000 1    0.00    0.00    -24.94    -29.42     24.97     30.49 0 0 0 0
     16     149  0.014227  0.046950   0.01231    137.68    137.68    137.68 1.00000    0.000 1    0.00    0.00     39.80    -70.29    -38.87     72.14 0 0 0 0
     16     192  0.001000  0.040000   0.00000    200.00    200.00    200.00 1.00000    0.000 1    0.00    0.00   -101.24     14.61    101.34    -10.34 0 0 0 0
     16     193  0.001116  0.048000   0.00000    250.00    250.00    250.00 1.00000    0.000 1    0.00    0.00   -141.94     -3.05    142.17     12.93 0 0 0 0
     17      18  0.056699  0.194499   0.04709    137.68    137.68    137.68 1.00000    0.000 1    0.00    0.00    -42.01     20.22     43.42    -19.62 0 0 0 0
     17     145  0.046728  0.104525   0.02669    107.32    107.32    107.32 1.00000    0.000 1    0.00    0.00     16.09    -18.16    -15.81     16.32 0 0 0 0
     17     194  0.002162  0.080000   0.00000    150.00    150.00    150.00 1.00000    0.000 1    0.00    0.00    -92.29    -35.49     92.52     44.07 0 0 0 0
     19      20  0.000426  0.020000   0.00000    400.00    400.00    400.00 1.00000    0.000 1    0.00    0.00   -688.29     -5.65    690.48    108.69 0 0 0 0
     19      33  0.000700  0.014200   0.00000   1000.00   1000.00   1000.00 1.00000    0.000 1    0.00    0.00   -338.05   -302.99    339.62    334.82 0 0 0 0
     19      96  0.055097  0.129519   0.02990    107.32    107.32    107.32 1.00000    0.000 1    0.00    0.00     40.72     -5.90    -39.71      5.56 0 0 0 0
     19     105  0.000528  0.012761   0.00724    522.03    522.03    522.03 1.00000    0.000 1    0.00    0.00    327.65    103.37   -326.97    -87.64 0 0 0 0
     19     110  0.005086  0.023707   0.00609    173.53    173.53    173.53 1.00000    0.000 1    0.00    0.00     94.73     38.98    -94.15    -36.82 0 0 0 0
     19     118  0.000642  0.013449   0.00755    474.70    474.70    474.70 1.00000    0.000 1    0.00    0.00    394.10    123.03   -392.91    -98.78 0 0 0 0
     19     175  0.056202  0.251624   0.07017    173.53    173.53    173.53 1.00000    0.000 1    0.00    0.00    -52.61    -11.41     54.34     12.29 0 0 0 0
     19     195  0.002353  0.080000   0.00000    100.00    100.00    100.00 1.00000    0.000 1    0.00    0.00     67.80     20.12    -67.67    -15.77 0 0 0 0
     19     196  0.003529  0.120000   0.00000    100.00    100.00    100.00 1.00000    0.000 1    0.00    0.00     17.26      4.06    -17.25     -3.65 0 0 0 0
     20      34  0.000900  0.018000   0.00000    600.00    600.00    600.00 1.00000    0.000 1    0.00    0.00   -826.66   -147.29    833.35    281.12 0 0 0 0
     21     129  0.006980  0.035005   0.01005    187.39    187.39    187.39 1.00000    0.000 1    0.00    0.00    102.92     47.28   -101.91    -43.08 0 0 0 0
     21     130  0.007383  0.060698   0.01884    261.01    261.01    261.01 1.00000    0.000 1    0.00    0.00    -95.27    -93.61     96.74    103.88 0 0 0 0
     21     197  0.001441  0.053333   0.00000    150.00    150.00    150.00 1.00000    0.000 1    0.00    0.00    -74.26      1.61     74.35      1.70 0 0 0 0
     21     198  0.001500  0.060000   0.00000    200.00    200.00    200.00 1.00000    0.000 1    0.00    0.00   -117.25     -7.03    117.48     16.35 0 0 0 0
     22      23  0.013985  0.034482   0.05572    178.87    178.87    178.87 1.00000    0.000 1    0.00    0.00    -42.91    -10.75     43.19      6.07 0 0 0 0
     22      35  0.000000  0.014300   0.00000   1950.00   1950.00   1950.00 1.00000    0.000 1    0.00    0.00  -1060.91   -213.58   1060.91    389.09 0 0 0 0
     22     199  0.000131  0.006667   0.00000   1050.00   1050.00   1050.00 1.00000    0.000 1    0.00    0.00    934.08    174.20   -932.84   -111.12 0 0 0 0
     23      24  0.043009  0.106048   0.17137    178.87    178.87    178.87 1.00000    0.000 1    0.00    0.00     28.53    -45.91    -27.55     31.18 0 0 0 0
     23      36  0.000500  0.027200   0.00000   1000.00   1000.00   1000.00 1.00000    0.000 1    0.00    0.00   -449.01    -88.04    450.08    146.62 0 0 0 0
     23      90  0.006901  0.020365   0.03648    206.75    206.75    206.75 1.00000    0.000 1    0.00    0.00    114.92     37.90   -113.87    -38.29 0 0 0 0
     23      91  0.012793  0.054395   0.09557    262.53    262.53    262.53 1.00000    0.000 1    0.00    0.00    131.82     45.75   -129.20    -43.50 0 0 0 0
     24     177  0.002078  0.014281   0.02528    353.36    353.36    353.36 1.00000    0.000 1    0.00    0.00    155.09    107.51   -154.37   -105.09 0 0 0 0
     24     200  0.000372  0.017500   0.00000    400.00    400.00    400.00 1.00000    0.000 1    0.00    0.00    126.24    112.41   -126.13   -107.55 0 0 0 0
     25      37  0.000600  0.023200   0.00000   1000.00   1000.00   1000.00 1.00000    0.000 1    0.00    0.00   -432.80    -99.38    434.01    146.14 0 0 0 0
     25     133  0.006133  0.048676   0.09258    395.58    395.58    395.58 1.00000    0.000 1    0.00    0.00    216.36     49.17   -213.25    -33.19 0 0 0 0
     25     168  0.018164  0.045274   0.07160    178.87    178.87    178.87 1.00000    0.000 1    0.00    0.00     90.50     31.22    -88.76    -33.65 0 0 0 0
     25     201  0.001261  0.046667   0.00000    150.00    150.00    150.00 1.00000    0.000 1    0.00    0.00     41.67     -9.01    -41.65      9.88 0 0 0 0
     26      42  0.007136  0.049490   0.43522    530.03    530.03    530.03 1.00000    0.000 1    0.00    0.00    -47.19      7.81     47.40    -51.09 0 0 0 0
     26      43  0.001333  0.009112   0.08245    530.03    530.03    530.03 1.00000    0.000 1    0.00    0.00    116.03     56.23   -115.81    -63.25 0 0 0 0
     26     202  0.010447  0.072454   0.63716    530.03    530.03    530.03 1.00000    0.000 1    0.00    0.00     57.65     24.48    -56.99    -83.20 0 0 0 0
     27     160  0.022175  0.054676   0.08835    178.87    178.87    178.87 1.00000    0.000 1    0.00    0.00     26.28     47.35    -25.46    -53.01 0 0 0 0
     27     202  0.000519  0.023333   0.00000    300.00    300.00    300.00 1.00000    0.000 1    0.00    0.00   -157.51    -91.12    157.70     99.69 0 0 0 0
     28      77  0.066564  0.156472   0.03612    107.32    107.32    107.32 1.00000    0.000 1    0.00    0.00     32.19     11.40    -31.41    -13.19 0 0 0 0
     28      88  0.001156  0.018601   0.00608    418.29    418.29    418.29 1.00000    0.000 1    0.00    0.00    203.49     62.11   -202.99    -54.64 0 0 0 0
     28     203  0.005926  0.160000   0.00000     50.00     50.00     50.00 1.00000    0.000 1    0.00    0.00     10.28     17.45    -10.26    -16.82 0 0 0 0
     28     204  0.003529  0.120000   0.00000    100.00    100.00    100.00 1.00000    0.000 1    0.00    0.00     45.21     10.22    -45.13     -7.74 0 0 0 0
     29      38  0.000800  0.015600   0.00000   1200.00   1200.00   1200.00 1.00000    0.000 1    0.00    0.00   -663.95    -41.84    667.47    110.47 0 0 0 0
     29      84  0.009549  0.091679   0.02681    283.00    283.00    283.00 1.00000    0.000 1    0.00    0.00    128.26    -25.63   -126.64     38.41 0 0 0 0
     29     205  0.000209  0.010667   0.00000    750.00    750.00    750.00 1.00000    0.000 1    0.00    0.00    433.03     34.05   -432.64    -14.04 0 0 0 0
     39      43  0.005771  0.040026   0.35199    530.03    530.03    530.03 1.00000    0.000 1    0.00    0.00    113.99    -44.44   -113.22     13.89 0 0 0 0
     40      43  0.003602  0.023140   0.23770    530.03    530.03    530.03 1.00000    0.000 1    0.00    0.00    -98.62    -29.76     98.97      7.85 0 0 0 0
    202      41  0.002711  0.018804   0.16536    530.03    530.03    530.03 1.00000    0.000 1    0.00    0.00    126.37     26.57   -125.88    -38.70 0 0 0 0
     42     167  0.006872  0.049342   0.40438    530.03    530.03    530.03 1.00000    0.000 1    0.00    0.00   -186.22      8.00    188.61    -32.07 0 0 0 0
     44      55  0.007424  0.027027   0.04470    229.46    229.46    229.46 1.00000    0.000 1    0.00    0.00    110.79     -4.94   -109.89      3.75 0 0 0 0
     44     206  0.000372  0.017500   0.00000    400.00    400.00    400.00 1.00000    0.000 1    0.00    0.00   -221.60    -34.82    221.79     43.55 0 0 0 0
     45      52  0.000887  0.008362   0.07659    652.53    652.53    652.53 1.00000    0.000 1    0.00    0.00   -359.77    -79.34    360.95     82.52 0 0 0 0
    206      45  0.000420  0.002856   0.02611    530.03    530.03    530.03 1.00000    0.000 1    0.00    0.00    161.19     39.78   -161.07    -41.68 0 0 0 0
     45     212  0.001035  0.009761   0.08940    652.53    652.53    652.53 1.00000    0.000 1    0.00    0.00    368.43     67.13   -367.00    -62.68 0 0 0 0
     46      47  0.016826  0.106284   0.02894    212.01    212.01    212.01 1.00000    0.000 1    0.00    0.00    104.40     40.54   -101.97    -27.51 0 0 0 0
     46     207  0.000370  0.017778   0.00000    450.00    450.00    450.00 1.00000    0.000 1    0.00    0.00   -241.09    -84.10    241.37     97.38 0 0 0 0
     47      63  0.038101  0.089565   0.02068    107.32    107.32    107.32 1.00000    0.000 1    0.00    0.00    -24.46    -10.24     24.80      9.42 0 0 0 0
     48     150  0.003523  0.024436   0.21489    530.03    530.03    530.03 1.00000    0.000 1    0.00    0.00    147.22     33.77   -146.28    -45.83 0 0 0 0
    182      48  0.003417  0.023699   0.20841    530.03    530.03    530.03 1.00000    0.000 1    0.00    0.00    298.90     83.39   -295.33    -77.61 0 0 0 0
     49      65  0.001800  0.037712   0.02118    474.70    474.70    474.70 1.00000    0.000 1    0.00    0.00    208.25     94.75   -207.34    -77.83 0 0 0 0
     49     208  0.001000  0.040000   0.00000    200.00    200.00    200.00 1.00000    0.000 1    0.00    0.00     84.16     34.23    -84.08    -31.05 0 0 0 0
     49     209  0.001500  0.060000   0.00000    200.00    200.00    200.00 1.00000    0.000 1    0.00    0.00     70.45     47.57    -70.35    -43.41 0 0 0 0
     50      65  0.005258  0.037515   0.01148    237.35    237.35    237.35 1.00000    0.000 1    0.00    0.00   -101.50    -32.38    102.13     35.85 0 0 0 0
     50     210  0.003529  0.120000   0.00000    100.00    100.00    100.00 1.00000    0.000 1    0.00    0.00    -39.70    -10.65     39.77     12.82 0 0 0 0
     51      68  0.004060  0.037344   0.01192    283.00    283.00    283.00 1.00000    0.000 1    0.00    0.00   -104.28     -0.78    104.76      4.20 0 0 0 0
     51      72  0.000709  0.007194   0.00234    304.04    304.04    304.04 1.00000    0.000 1    0.00    0.00    -24.27    -45.87     24.29     45.87 0 0 0 0
    183      52  0.002047  0.021637   0.20301    707.51    707.51    707.51 1.00000    0.000 1    0.00    0.00   -351.51    -97.73    354.24    106.14 0 0 0 0
    206      52  0.000643  0.006662   0.06506    707.51    707.51    707.51 1.00000    0.000 1    0.00    0.00   -382.97    -83.33    383.93     86.57 0 0 0 0
     53      57  0.006894  0.059124   0.01683    261.01    261.01    261.01 1.00000    0.000 1    0.00    0.00     99.53     48.09    -98.58    -41.32 0 0 0 0
     53      73  0.003976  0.033438   0.00991    261.01    261.01    261.01 1.00000    0.000 1    0.00    0.00     29.46    -29.08    -29.38     28.83 0 0 0 0
     53     211  0.000369  0.018462   0.00000    650.00    650.00    650.00 1.00000    0.000 1    0.00    0.00   -350.34    -91.02    350.89    118.34 0 0 0 0
     55      61  0.034539  0.120369   0.21762    229.46    229.46    229.46 1.00000    0.000 1    0.00    0.00     98.16    -25.39    -94.74     15.85 0 0 0 0
    208      55  0.006202  0.018912   0.03169    206.75    206.75    206.75 1.00000    0.000 1    0.00    0.00     77.56     20.87    -77.16    -22.83 0 0 0 0
     55     212  0.001261  0.046667   0.00000    150.00    150.00    150.00 1.00000    0.000 1    0.00    0.00    -61.91     -3.25     61.95      5.05 0 0 0 0
    185      56  0.000908  0.009601   0.09009    707.51    707.51    707.51 1.00000    0.000 1    0.00    0.00    256.74   -226.69   -255.69    228.60 0 0 0 0
    191      56  0.000301  0.008151   0.12418   1246.50   1246.50   1246.50 1.00000    0.000 1    0.00    0.00   -654.91   -114.76    656.22    137.47 0 0 0 0
     57      60  0.018675  0.042258   0.01054    107.32    107.32    107.32 1.00000    0.000 1    0.00    0.00      0.24      7.63     -0.22     -8.45 0 0 0 0
     58      62  0.002141  0.014851   0.13060    530.03    530.03    530.03 1.00000    0.000 1    0.00    0.00    147.96     45.42   -147.42    -54.22 0 0 0 0
     58      66  0.001447  0.010038   0.08828    530.03    530.03    530.03 1.00000    0.000 1    0.00    0.00    -35.06    -62.93     35.13     54.78 0 0 0 0
    185      58  0.002185  0.015152   0.13324    530.03    530.03    530.03 1.00000    0.000 1    0.00    0.00    305.88     45.83   -303.77    -44.35 0 0 0 0
    191      59  0.000938  0.006385   0.05837    530.03    530.03    530.03 1.00000    0.000 1    0.00    0.00    287.59     67.81   -286.78    -68.16 0 0 0 0
     59     213  0.000907  0.006172   0.05642    530.03    530.03    530.03 1.00000    0.000 1    0.00    0.00    162.48     27.94   -162.23    -31.87 0 0 0 0
     60      63  0.017610  0.040671   0.00973    107.32    107.32    107.32 1.00000    0.000 1    0.00    0.00     11.15      7.30    -11.11     -7.99 0 0 0 0
     60      64  0.005655  0.040347   0.01235    237.35    237.35    237.35 1.00000    0.000 1    0.00    0.00   -148.07    -44.89    149.73     55.72 0 0 0 0
     61     143  0.002057  0.016137   0.03143    395.58    395.58    395.58 1.00000    0.000 1    0.00    0.00    117.76    -64.95   -117.39     64.81 0 0 0 0
    192      61  0.004667  0.025655   0.04713    312.32    312.32    312.32 1.00000    0.000 1    0.00    0.00   -143.25     15.66    144.25    -14.75 0 0 0 0
     61     213  0.000519  0.023333   0.00000    300.00    300.00    300.00 1.00000    0.000 1    0.00    0.00   -162.09    -25.44    162.23     31.87 0 0 0 0
     63      75  0.005417  0.046454   0.01323    261.01    261.01    261.01 1.00000    0.000 1    0.00    0.00   -132.85    -47.71    134.20     58.12 0 0 0 0
     64     214  0.000336  0.017143   0.00000    700.00    700.00    700.00 1.00000    0.000 1    0.00    0.00   -389.39   -130.45    390.05    163.70 0 0 0 0
     66      71  0.001271  0.008811   0.07749    530.03    530.03    530.03 1.00000    0.000 1    0.00    0.00   -156.10   -100.85    156.54     96.17 0 0 0 0
     67      68  0.002882  0.026509   0.00846    283.00    283.00    283.00 1.00000    0.000 1    0.00    0.00   -134.69    -42.19    135.35     47.42 0 0 0 0
     68     215  0.000336  0.017143   0.00000    700.00    700.00    700.00 1.00000    0.000 1    0.00    0.00   -400.85   -108.98    401.49    141.40 0 0 0 0
    189      69  0.001131  0.007735   0.06999    530.03    530.03    530.03 1.00000    0.000 1    0.00    0.00    -33.37    -86.32     33.46     79.69 0 0 0 0
     69     247  0.002929  0.020317   0.17866    530.03    530.03    530.03 1.00000    0.000 1    0.00    0.00    265.97    133.89   -263.40   -134.04 0 0 0 0
     71      76  0.001422  0.009863   0.08674    530.03    530.03    530.03 1.00000    0.000 1    0.00    0.00   -263.44   -136.91    264.67    136.57 0 0 0 0
     72      73  0.000275  0.004586   0.00284    424.03    424.03    424.03 1.00000    0.000 1    0.00    0.00     80.49     66.70    -80.46    -66.40 0 0 0 0
    182      74  0.000498  0.003455   0.03038    530.03    530.03    530.03 1.00000    0.000 1    0.00    0.00     74.27     44.41    -74.23    -46.98 0 0 0 0
    210      74  0.001292  0.011415   0.10343    623.25    623.25    623.25 1.00000    0.000 1    0.00    0.00    260.61     90.82   -259.57    -91.49 0 0 0 0
     74     216  0.000640  0.004357   0.03984    530.03    530.03    530.03 1.00000    0.000 1    0.00    0.00    212.75     99.97   -212.37   -101.08 0 0 0 0
     75     216  0.000638  0.030000   0.00000    400.00    400.00    400.00 1.00000    0.000 1    0.00    0.00   -211.99    -83.11    212.37    101.08 0 0 0 0
    190      76  0.001435  0.009955   0.08755    530.03    530.03    530.03 1.00000    0.000 1    0.00    0.00    148.52   -158.49   -147.87    154.00 0 0 0 0
     76     238  0.003386  0.047034   0.46520    868.25    868.25    868.25 1.00000    0.000 1    0.00    0.00    407.52    118.41   -401.45    -79.70 0 0 0 0
     77      84  0.006198  0.069744   0.01841    304.04    304.04    304.04 1.00000    0.000 1    0.00    0.00   -141.87    -38.49    143.26     52.31 0 0 0 0
     77      89  0.016077  0.099621   0.02821    212.01    212.01    212.01 1.00000    0.000 1    0.00    0.00    102.06     42.98    -99.98    -32.67 0 0 0 0
     77     217  0.005926  0.160000   0.00000     50.00     50.00     50.00 1.00000    0.000 1    0.00    0.00     -8.56      1.01      8.56     -0.89 0 0 0 0
     77     218  0.003529  0.120000   0.00000    100.00    100.00    100.00 1.00000    0.000 1    0.00    0.00    -24.43    -22.85     24.47     24.25 0 0 0 0
     78      79  0.014099  0.097781   0.85988    511.35    511.35    511.35 1.00000    0.000 1    0.00    0.00     62.78    -60.75    -62.22    -25.52 0 0 0 0
     78     167  0.005724  0.038942   0.35603    530.03    530.03    530.03 1.00000    0.000 1    0.00    0.00     30.89     -1.52    -30.82    -34.76 0 0 0 0
     79      87  0.008106  0.052075   0.53493    530.03    530.03    530.03 1.00000    0.000 1    0.00    0.00   -101.23    -19.55    102.02    -32.23 0 0 0 0
     80      81  0.005975  0.042908   0.35164    530.03    530.03    530.03 1.00000    0.000 1    0.00    0.00     49.53    -16.02    -49.39    -19.42 0 0 0 0
     80      87  0.003558  0.071801   1.18166    696.37    696.37    696.37 1.00000    0.000 1    0.00    0.00    258.91    -70.29   -256.61     -7.96 0 0 0 0
     81      82  0.007764  0.053845   0.47351    530.03    530.03    530.03 1.00000    0.000 1    0.00    0.00    -93.93    -15.44     94.60    -29.01 0 0 0 0
     82      83  0.007662  0.053138   0.46730    530.03    530.03    530.03 1.00000    0.000 1    0.00    0.00     42.62    -23.07    -42.49    -24.44 0 0 0 0
     83     219  0.005009  0.034736   0.30546    530.03    530.03    530.03 1.00000    0.000 1    0.00    0.00    -65.20     -6.94     65.41    -23.18 0 0 0 0
     84     219  0.000224  0.011429   0.00000   1050.00   1050.00   1050.00 1.00000    0.000 1    0.00    0.00    578.46     35.26   -577.74      1.64 0 0 0 0
     85     154  0.017306  0.084819   0.15179    289.22    289.22    289.22 1.00000    0.000 1    0.00    0.00    169.35    -11.10   -163.89     24.27 0 0 0 0
    217      85  0.004299  0.043533   0.08806    471.67    471.67    471.67 1.00000    0.000 1    0.00    0.00    265.77     41.05   -262.51    -16.22 0 0 0 0
     86      88  0.044131  0.145633   0.03817    137.68    137.68    137.68 1.00000    0.000 1    0.00    0.00    -68.68     -8.56     70.96     12.40 0 0 0 0
     86     169  0.025279  0.129580   0.03558    187.39    187.39    187.39 1.00000    0.000 1    0.00    0.00     59.00    -14.40    -58.00     16.23 0 0 0 0
     86     220  0.000744  0.032000   0.00000    250.00    250.00    250.00 1.00000    0.000 1    0.00    0.00   -128.25    -11.47    128.39     17.22 0 0 0 0
...